Uncertainty/data/case-de/case_de_119.py
from numpy import array
def case_de_119():
	ppc = {"version": '2'}
	ppc["baseMVA"] = 100.0
	ppc["bus"] = array([
		[75,     2,   99.82,    19.96,    0,      0,      5,   1.0,      0,        380.0,    0,   1.1,      0.9,      0.6, 10   ],
		[502,    2,   220.81,   44.16,    0,      0,      5,   1.0,      0,        220.0,    0,   1.1,      0.9,      0.6, 10   ],
		[44,     2,   136.09,   27.22,    0,      0,      5,   1.0,      0,        220.0,    0,   1.1,      0.9,      0.6, 10   ],
		[492,    2,   75.12,    15.02,    0,      0,      5,   1.0,      0,        220.0,    0,   1.1,      0.9,      0.6, 10   ],
		[180,    2,   43.58,    8.72,     0,      0,      5,   1.0,      0,        220.0,    0,   1.1,      0.9,      0.6, 10   ],
		[46,     1,   0,        0,        0,      0,      5,   1.0,      0,        380.0,    0,   1.1,      0.9,      0.6, 10   ],
		[21,     2,   874.82,   174.96,   0,      0,      5,   1.0,      0,        380.0,    0,   1.1,      0.9,      0.6, 10   ],
		[33,     2,   180.1,    36.02,    0,      0,      5,   1.0,      0,        380.0,    0,   1.1,      0.9,      0.6, 10   ],
		[559,    2,   66.64,    13.33,    0,      0,      5,   1.0,      0,        220.0,    0,   1.1,      0.9,      0.6, 10   ],
		[18,     1,   0,        0,        0,      0,      5,   1.0014,   0,        380.0,    0,   1.1,      0.9,      0.6, 10   ],
		[73,     2,   80.09,    16.02,    0,      0,      5,   1.0,      0,        380.0,    0,   1.1,      0.9,      0.6, 10   ],
		[503,    2,   67.63,    13.53,    0,      0,      5,   1.0,      0,        220.0,    0,   1.1,      0.9,      0.6, 10   ],
		[511,    2,   99.01,    19.8,     0,      0,      5,   1.0,      0,        220.0,    0,   1.1,      0.9,      0.6, 10   ],
		[72,     2,   250.18,   50.04,    0,      0,      5,   1.0,      0,        380.0,    0,   1.1,      0.9,      0.6, 10   ],
		[288,    2,   58.46,    11.69,    0,      0,      5,   1.0,      0,        380.0,    0,   1.1,      0.9,      0.6, 10   ],
		[339,    2,   146.02,   29.2,     0,      0,      5,   1.0,      0,        220.0,    0,   1.1,      0.9,      0.6, 10   ],
		[321,    2,   188.3,    37.66,    0,      0,      5,   1.0,      0,        220.0,    0,   1.1,      0.9,      0.6, 10   ],
		[8,      2,   144.65,   28.93,    0,      0,      5,   1.0,      0,        380.0,    0,   1.1,      0.9,      0.6, 10   ],
		[292,    2,   119.29,   23.86,    0,      0,      5,   1.0,      0,        380.0,    0,   1.1,      0.9,      0.6, 10   ],
		[343,    2,   106.21,   21.24,    0,      0,      5,   1.0,      0,        220.0,    0,   1.1,      0.9,      0.6, 10   ],
		[12,     1,   0,        0,        0,      0,      5,   1.0007,   0,        380.0,    0,   1.1,      0.9,      0.6, 10   ],
		[340,    2,   123.46,   24.69,    0,      0,      5,   1.0,      0,        220.0,    0,   1.1,      0.9,      0.6, 10   ],
		[177,    2,   25.41,    5.08,     0,      0,      5,   1.0,      0,        220.0,    0,   1.1,      0.9,      0.6, 10   ],
		[497,    2,   922.68,   184.54,   0,      0,      5,   1.0,      0,        220.0,    0,   1.1,      0.9,      0.6, 10   ],
		[102,    2,   133.85,   26.77,    0,      0,      5,   1.0,      0,        380.0,    0,   1.1,      0.9,      0.6, 10   ],
		[311,    2,   183.99,   36.8,     0,      0,      5,   1.0,      0,        380.0,    0,   1.1,      0.9,      0.6, 10   ],
		[429,    2,   314.93,   62.99,    0,      0,      5,   1.0,      0,        220.0,    0,   1.1,      0.9,      0.6, 10   ],
		[32,     1,   0,        0,        0,      0,      5,   0.9953,   0,        380.0,    0,   1.1,      0.9,      0.6, 10   ],
		[22,     1,   0,        0,        0,      0,      5,   0.9999,   0,        380.0,    0,   1.1,      0.9,      0.6, 10   ],
		[101,    2,   69.15,    13.83,    0,      0,      5,   1.0,      0,        380.0,    0,   1.1,      0.9,      0.6, 10   ],
		[71,     2,   152.75,   30.55,    0,      0,      5,   1.0,      0,        380.0,    0,   1.1,      0.9,      0.6, 10   ],
		[558,    2,   124.52,   24.9,     0,      0,      5,   1.0,      0,        220.0,    0,   1.1,      0.9,      0.6, 10   ],
		[217,    2,   37.68,    7.54,     0,      0,      5,   1.0,      0,        380.0,    0,   1.1,      0.9,      0.6, 10   ],
		[322,    2,   23.97,    4.79,     0,      0,      5,   1.0,      0,        380.0,    0,   1.1,      0.9,      0.6, 10   ],
		[278,    2,   139.3,    27.86,    0,      0,      5,   1.0,      0,        380.0,    0,   1.1,      0.9,      0.6, 10   ],
		[498,    2,   43.27,    8.65,     0,      0,      5,   1.0,      0,        220.0,    0,   1.1,      0.9,      0.6, 10   ],
		[47,     2,   314.1,    62.82,    0,      0,      5,   1.0,      0,        380.0,    0,   1.1,      0.9,      0.6, 10   ],
		[346,    2,   289.08,   57.82,    0,      0,      5,   1.0,      0,        380.0,    0,   1.1,      0.9,      0.6, 10   ],
		[74,     1,   0,        0,        0,      0,      5,   1.0016,   0,        380.0,    0,   1.1,      0.9,      0.6, 10   ],
		[557,    2,   211.17,   42.23,    0,      0,      5,   1.0,      0,        220.0,    0,   1.1,      0.9,      0.6, 10   ],
		[42,     1,   0,        0,        0,      0,      5,   1.0015,   0,        380.0,    0,   1.1,      0.9,      0.6, 10   ],
		[39,     3,   61.79,    12.36,    0,      0,      5,   1.0,      0,        380.0,    0,   1.1,      0.9,      0.6, 10   ],
		[45,     2,   72.24,    14.45,    0,      0,      5,   1.0,      0,        220.0,    0,   1.1,      0.9,      0.6, 10   ],
		[493,    2,   96.82,    19.36,    0,      0,      5,   1.0,      0,        220.0,    0,   1.1,      0.9,      0.6, 10   ],
		[98,     2,   97.66,    19.53,    0,      0,      5,   1.0,      0,        380.0,    0,   1.1,      0.9,      0.6, 10   ],
		[435,    2,   139.52,   27.9,     0,      0,      5,   1.0,      0,        380.0,    0,   1.1,      0.9,      0.6, 10   ],
		[338,    2,   236.09,   47.22,    0,      0,      5,   1.0,      0,        220.0,    0,   1.1,      0.9,      0.6, 10   ],
		[79,     2,   96.36,    19.27,    0,      0,      5,   1.0,      0,        380.0,    0,   1.1,      0.9,      0.6, 10   ],
		[78,     1,   0,        0,        0,      0,      5,   0.9944,   0,        380.0,    0,   1.1,      0.9,      0.6, 10   ],
		[512,    2,   65.4,     13.08,    0,      0,      5,   1.0,      0,        220.0,    0,   1.1,      0.9,      0.6, 10   ],
		[276,    2,   178.43,   35.69,    0,      0,      5,   1.0,      0,        220.0,    0,   1.1,      0.9,      0.6, 10   ],
		[569,    2,   172.8,    34.56,    0,      0,      5,   1.0,      0,        220.0,    0,   1.1,      0.9,      0.6, 10   ],
		[37,     1,   0,        0,        0,      0,      5,   1.0002,   0,        380.0,    0,   1.1,      0.9,      0.6, 10   ],
		[179,    2,   49.58,    9.92,     0,      0,      5,   1.0,      0,        220.0,    0,   1.1,      0.9,      0.6, 10   ],
		[325,    2,   143.62,   28.72,    0,      0,      5,   1.0,      0,        380.0,    0,   1.1,      0.9,      0.6, 10   ],
		[20,     1,   0,        0,        0,      0,      5,   0.9973,   0,        380.0,    0,   1.1,      0.9,      0.6, 10   ],
		[496,    2,   7.38,     1.48,     0,      0,      5,   1.0,      0,        220.0,    0,   1.1,      0.9,      0.6, 10   ],
		[279,    1,   0,        0,        0,      0,      5,   0.9978,   0,        380.0,    0,   1.1,      0.9,      0.6, 10   ],
		[436,    2,   74.49,    14.9,     0,      0,      5,   1.0,      0,        380.0,    0,   1.1,      0.9,      0.6, 10   ],
		[345,    2,   291.19,   58.24,    0,      0,      5,   1.0,      0,        380.0,    0,   1.1,      0.9,      0.6, 10   ],
		[505,    2,   314.1,    62.82,    0,      0,      5,   1.0,      0,        220.0,    0,   1.1,      0.9,      0.6, 10   ],
		[290,    1,   0,        0,        0,      0,      5,   1.0032,   0,        380.0,    0,   1.1,      0.9,      0.6, 10   ],
		[363,    2,   294.67,   58.93,    0,      0,      5,   1.0,      0,        380.0,    0,   1.1,      0.9,      0.6, 10   ],
		[11,     2,   85.71,    17.14,    0,      0,      5,   1.0,      0,        220.0,    0,   1.1,      0.9,      0.6, 10   ],
		[277,    1,   0,        0,        0,      0,      5,   0.9978,   0,        380.0,    0,   1.1,      0.9,      0.6, 10   ],
		[441,    2,   54.92,    10.98,    0,      0,      5,   1.0,      0,        220.0,    0,   1.1,      0.9,      0.6, 10   ],
		[280,    1,   0,        0,        0,      0,      5,   0.9991,   0,        380.0,    0,   1.1,      0.9,      0.6, 10   ],
		[504,    2,   44.29,    8.86,     0,      0,      5,   1.0,      0,        220.0,    0,   1.1,      0.9,      0.6, 10   ],
		[181,    2,   32.9,     6.58,     0,      0,      5,   1.0,      0,        220.0,    0,   1.1,      0.9,      0.6, 10   ],
		[291,    2,   60.51,    12.1,     0,      0,      5,   1.0,      0,        220.0,    0,   1.1,      0.9,      0.6, 10   ],
		[344,    2,   266.3,    53.26,    0,      0,      5,   1.0,      0,        380.0,    0,   1.1,      0.9,      0.6, 10   ],
		[40,     2,   64.54,    12.91,    0,      0,      5,   1.0,      0,        380.0,    0,   1.1,      0.9,      0.6, 10   ],
		[80,     2,   102.35,   20.47,    0,      0,      5,   1.0,      0,        380.0,    0,   1.1,      0.9,      0.6, 10   ],
		[183,    2,   446.06,   89.21,    0,      0,      5,   1.0,      0,        380.0,    0,   1.1,      0.9,      0.6, 10   ],
		[440,    2,   71.63,    14.33,    0,      0,      5,   1.0,      0,        220.0,    0,   1.1,      0.9,      0.6, 10   ],
		[43,     2,   106.37,   21.27,    0,      0,      5,   1.0,      0,        220.0,    0,   1.1,      0.9,      0.6, 10   ],
		[10,     1,   0,        0,        0,      0,      5,   1.0004,   0,        380.0,    0,   1.1,      0.9,      0.6, 10   ],
		[81,     2,   115.54,   23.11,    0,      0,      5,   1.0,      0,        380.0,    0,   1.1,      0.9,      0.6, 10   ],
		[560,    2,   104.11,   20.82,    0,      0,      5,   1.0,      0,        220.0,    0,   1.1,      0.9,      0.6, 10   ],
		[341,    2,   111.61,   22.32,    0,      0,      5,   1.0,      0,        380.0,    0,   1.1,      0.9,      0.6, 10   ],
		[17,     2,   82.34,    16.47,    0,      0,      5,   1.0,      0,        380.0,    0,   1.1,      0.9,      0.6, 10   ],
		[41,     2,   69.37,    13.87,    0,      0,      5,   1.0,      0,        380.0,    0,   1.1,      0.9,      0.6, 10   ],
		[192,    2,   52.26,    10.45,    0,      0,      0,   1.0,      0,        220.0,    0,   1.1,      0.9,      0.6, 10   ],
		[342,    2,   193.6,    38.72,    0,      0,      0,   1.0,      0,        220.0,    0,   1.1,      0.9,      0.6, 10   ],
		[218,    2,   114.79,   22.96,    0,      0,      0,   1.0,      0,        220.0,    0,   1.1,      0.9,      0.6, 10   ],
		[65,     2,   5.1,      1.02,     0,      0,      0,   1.0,      0,        380.0,    0,   1.1,      0.9,      0.6, 10   ],
		[289,    2,   91.95,    18.39,    0,      0,      0,   1.0,      0,        380.0,    0,   1.1,      0.9,      0.6, 10   ],
		[324,    2,   440.88,   88.18,    0,      0,      0,   1.0,      0,        380.0,    0,   1.1,      0.9,      0.6, 10   ],
		[48,     2,   215.9,    43.18,    0,      0,      0,   1.0,      0,        380.0,    0,   1.1,      0.9,      0.6, 10   ],
		[332,    1,   0,        0,        0,      0,      0,   0.9939,   0,        380.0,    0,   1.1,      0.9,      0.6, 10   ],
		[422,    2,   71.88,    14.38,    0,      0,      0,   1.0,      0,        380.0,    0,   1.1,      0.9,      0.6, 10   ],
		[23,     2,   114.54,   22.91,    0,      0,      0,   1.0,      0,        220.0,    0,   1.1,      0.9,      0.6, 10   ],
		[570,    2,   269.77,   53.95,    0,      0,      0,   1.0,      0,        220.0,    0,   1.1,      0.9,      0.6, 10   ],
		[38,     2,   188.69,   37.74,    0,      0,      0,   1.0,      0,        380.0,    0,   1.1,      0.9,      0.6, 10   ],
		[31,     2,   143.64,   28.73,    0,      0,      0,   1.0,      0,        380.0,    0,   1.1,      0.9,      0.6, 10   ],
		[49,     2,   54.61,    10.92,    0,      0,      0,   1.0,      0,        380.0,    0,   1.1,      0.9,      0.6, 10   ],
		[182,    2,   1.49,     0.3,      0,      0,      0,   1.0,      0,        220.0,    0,   1.1,      0.9,      0.6, 10   ],
		[9,      2,   97.83,    19.57,    0,      0,      0,   1.0,      0,        380.0,    0,   1.1,      0.9,      0.6, 10   ],
		[323,    2,   2.49,     0.5,      0,      0,      0,   1.0,      0,        380.0,    0,   1.1,      0.9,      0.6, 10   ],
		[400,    2,   52.29,    10.46,    0,      0,      0,   1.0,      0,        220.0,    0,   1.1,      0.9,      0.6, 10   ],
		[30,     1,   0,        0,        0,      0,      0,   0.9983,   0,        380.0,    0,   1.1,      0.9,      0.6, 10   ],
		[25,     2,   54.79,    10.96,    0,      0,      0,   1.0,      0,        380.0,    0,   1.1,      0.9,      0.6, 10   ]
	])
	ppc["gen"] = array([
		[102,    0.0,      0,        33.95,    -8.49,    1.0,      100,    1,   67.9,     0.0,      0, 0, 0, 0, 0, 0, 0, 0, 0, 0, 0, 0,   0.95,   101.85,   13.58,    20.37,    20.37,    27.16     ],
		[493,    0.0,      0,        75.0,     -18.75,   1.0,      100,    1,   150.0,    0.0,      0, 0, 0, 0, 0, 0, 0, 0, 0, 0, 0, 0,   0.95,   225.0,    30.0,     45.0,     45.0,     60.0      ],
		[493,    30.0,     0,        15.0,     -3.75,    1.0,      100,    1,   30.0,     0.0,      0, 0, 0, 0, 0, 0, 0, 0, 0, 0, 0, 0,   0.95,   45.0,     6.0,      9.0,      9.0,      12.0      ],
		[177,    0.0,      0,        16.35,    -4.09,    1.0,      100,    1,   32.7,     0.0,      0, 0, 0, 0, 0, 0, 0, 0, 0, 0, 0, 0,   0.95,   49.05,    6.54,     9.81,     9.81,     13.08     ],
		[180,    0.0,      0,        12.7,     -3.18,    1.0,      100,    1,   25.4,     0.0,      0, 0, 0, 0, 0, 0, 0, 0, 0, 0, 0, 0,   0.95,   38.1,     5.08,     7.62,     7.62,     10.16     ],
		[180,    0.0,      0,        166.75,   -41.69,   1.0,      100,    1,   333.5,    0.0,      0, 0, 0, 0, 0, 0, 0, 0, 0, 0, 0, 0,   0.95,   500.25,   66.7,     100.05,   100.05,   133.4     ],
		[180,    28.9,     0,        14.45,    -3.61,    1.0,      100,    1,   28.9,     0.0,      0, 0, 0, 0, 0, 0, 0, 0, 0, 0, 0, 0,   0.95,   43.35,    5.78,     8.67,     8.67,     11.56     ],
		[183,    0.0,      0,        11.25,    -2.81,    1.0,      100,    1,   22.5,     0.0,      0, 0, 0, 0, 0, 0, 0, 0, 0, 0, 0, 0,   0.95,   33.75,    4.5,      6.75,     6.75,     9.0       ],
		[183,    0.0,      0,        383.0,    -95.75,   1.0,      100,    1,   766.0,    0.0,      0, 0, 0, 0, 0, 0, 0, 0, 0, 0, 0, 0,   0.95,   1149.0,   153.2,    229.8,    229.8,    306.4     ],
		[183,    0.0,      0,        19.0,     -4.75,    1.0,      100,    1,   38.0,     0.0,      0, 0, 0, 0, 0, 0, 0, 0, 0, 0, 0, 0,   0.95,   57.0,     7.6,      11.4,     11.4,     15.2      ],
		[183,    0.0,      0,        12.0,     -3.0,     1.0,      100,    1,   24.0,     0.0,      0, 0, 0, 0, 0, 0, 0, 0, 0, 0, 0, 0,   0.95,   36.0,     4.8,      7.2,      7.2,      9.6       ],
		[496,    0.0,      0,        26.4,     -6.6,     1.0,      100,    1,   52.8,     0.0,      0, 0, 0, 0, 0, 0, 0, 0, 0, 0, 0, 0,   0.95,   79.2,     10.56,    15.84,    15.84,    21.12     ],
		[21,     0.0,      0,        63.5,     -15.88,   1.0,      100,    1,   127.0,    0.0,      0, 0, 0, 0, 0, 0, 0, 0, 0, 0, 0, 0,   0.95,   190.5,    25.4,     38.1,     38.1,     50.8      ],
		[21,     0.0,      0,        97.0,     -24.25,   1.0,      100,    1,   194.0,    0.0,      0, 0, 0, 0, 0, 0, 0, 0, 0, 0, 0, 0,   0.95,   291.0,    38.8,     58.2,     58.2,     77.6      ],
		[21,     0.0,      0,        8.2,      -2.05,    1.0,      100,    1,   16.4,     0.0,      0, 0, 0, 0, 0, 0, 0, 0, 0, 0, 0, 0,   0.95,   24.6,     3.28,     4.92,     4.92,     6.56      ],
		[217,    0.0,      0,        54.0,     -13.5,    1.0,      100,    1,   108.0,    0.0,      0, 0, 0, 0, 0, 0, 0, 0, 0, 0, 0, 0,   0.95,   162.0,    21.6,     32.4,     32.4,     43.2      ],
		[217,    0.0,      0,        254.0,    -63.5,    1.0,      100,    1,   508.0,    0.0,      0, 0, 0, 0, 0, 0, 0, 0, 0, 0, 0, 0,   0.95,   762.0,    101.6,    152.4,    152.4,    203.2     ],
		[217,    17.0,     0,        8.5,      -2.12,    1.0,      100,    1,   17.0,     0.0,      0, 0, 0, 0, 0, 0, 0, 0, 0, 0, 0, 0,   0.95,   25.5,     3.4,      5.1,      5.1,      6.8       ],
		[498,    0.0,      0,        149.25,   -37.31,   1.0,      100,    1,   298.5,    0.0,      0, 0, 0, 0, 0, 0, 0, 0, 0, 0, 0, 0,   0.95,   447.75,   59.7,     89.55,    89.55,    119.4     ],
		[557,    90.8,     0,        45.4,     -11.35,   1.0,      100,    1,   90.8,     0.0,      0, 0, 0, 0, 0, 0, 0, 0, 0, 0, 0, 0,   0.95,   136.2,    18.16,    27.24,    27.24,    36.32     ],
		[558,    0.0,      0,        37.0,     -9.25,    1.0,      100,    1,   74.0,     0.0,      0, 0, 0, 0, 0, 0, 0, 0, 0, 0, 0, 0,   0.95,   111.0,    14.8,     22.2,     22.2,     29.6      ],
		[559,    0.0,      0,        8.5,      -2.12,    1.0,      100,    1,   17.0,     0.0,      0, 0, 0, 0, 0, 0, 0, 0, 0, 0, 0, 0,   0.95,   25.5,     3.4,      5.1,      5.1,      6.8       ],
		[288,    15.7,     0,        7.85,     -1.96,    1.0,      100,    1,   15.7,     0.0,      0, 0, 0, 0, 0, 0, 0, 0, 0, 0, 0, 0,   0.95,   23.55,    3.14,     4.71,     4.71,     6.28      ],
		[289,    384.72,   0,        552.5,    -138.12,  1.0,      100,    1,   1105.0,   0.0,      0, 0, 0, 0, 0, 0, 0, 0, 0, 0, 0, 0,   0.95,   1657.5,   221.0,    331.5,    331.5,    442.0     ],
		[560,    0.0,      0,        10.15,    -2.54,    1.0,      100,    1,   20.3,     0.0,      0, 0, 0, 0, 0, 0, 0, 0, 0, 0, 0, 0,   0.95,   30.45,    4.06,     6.09,     6.09,     8.12      ],
		[560,    0.0,      0,        108.0,    -27.0,    1.0,      100,    1,   216.0,    0.0,      0, 0, 0, 0, 0, 0, 0, 0, 0, 0, 0, 0,   0.95,   324.0,    43.2,     64.8,     64.8,     86.4      ],
		[560,    59.0,     0,        29.5,     -7.38,    1.0,      100,    1,   59.0,     0.0,      0, 0, 0, 0, 0, 0, 0, 0, 0, 0, 0, 0,   0.95,   88.5,     11.8,     17.7,     17.7,     23.6      ],
		[292,    0.0,      0,        6.75,     -1.69,    1.0,      100,    1,   13.5,     0.0,      0, 0, 0, 0, 0, 0, 0, 0, 0, 0, 0, 0,   0.95,   20.25,    2.7,      4.05,     4.05,     5.4       ],
		[292,    11.2,     0,        5.6,      -1.4,     1.0,      100,    1,   11.2,     0.0,      0, 0, 0, 0, 0, 0, 0, 0, 0, 0, 0, 0,   0.95,   16.8,     2.24,     3.36,     3.36,     4.48      ],
		[31,     0.0,      0,        97.7,     -24.42,   1.0,      100,    1,   195.4,    0.0,      0, 0, 0, 0, 0, 0, 0, 0, 0, 0, 0, 0,   0.95,   293.1,    39.08,    58.62,    58.62,    78.16     ],
		[311,    875.0,    0,        437.5,    -109.38,  1.0,      100,    1,   875.0,    0.0,      0, 0, 0, 0, 0, 0, 0, 0, 0, 0, 0, 0,   0.95,   1312.5,   175.0,    262.5,    262.5,    350.0     ],
		[321,    0.0,      0,        6.45,     -1.61,    1.0,      100,    1,   12.9,     0.0,      0, 0, 0, 0, 0, 0, 0, 0, 0, 0, 0, 0,   0.95,   19.35,    2.58,     3.87,     3.87,     5.16      ],
		[324,    0.0,      0,        159.9,    -39.98,   1.0,      100,    1,   319.8,    0.0,      0, 0, 0, 0, 0, 0, 0, 0, 0, 0, 0, 0,   0.95,   479.7,    63.96,    95.94,    95.94,    127.92    ],
		[325,    0.0,      0,        13.45,    -3.36,    1.0,      100,    1,   26.9,     0.0,      0, 0, 0, 0, 0, 0, 0, 0, 0, 0, 0, 0,   0.95,   40.35,    5.38,     8.07,     8.07,     10.76     ],
		[502,    0.0,      0,        54.55,    -13.64,   1.0,      100,    1,   109.1,    0.0,      0, 0, 0, 0, 0, 0, 0, 0, 0, 0, 0, 0,   0.95,   163.65,   21.82,    32.73,    32.73,    43.64     ],
		[33,     0.0,      0,        15.9,     -3.98,    1.0,      100,    1,   31.8,     0.0,      0, 0, 0, 0, 0, 0, 0, 0, 0, 0, 0, 0,   0.95,   47.7,     6.36,     9.54,     9.54,     12.72     ],
		[570,    0.0,      0,        26.4,     -6.6,     1.0,      100,    1,   52.8,     0.0,      0, 0, 0, 0, 0, 0, 0, 0, 0, 0, 0, 0,   0.95,   79.2,     10.56,    15.84,    15.84,    21.12     ],
		[570,    89.0,     0,        44.5,     -11.12,   1.0,      100,    1,   89.0,     0.0,      0, 0, 0, 0, 0, 0, 0, 0, 0, 0, 0, 0,   0.95,   133.5,    17.8,     26.7,     26.7,     35.6      ],
		[338,    0.0,      0,        149.8,    -37.45,   1.0,      100,    1,   299.6,    0.0,      0, 0, 0, 0, 0, 0, 0, 0, 0, 0, 0, 0,   0.95,   449.4,    59.92,    89.88,    89.88,    119.84    ],
		[338,    82.5,     0,        41.25,    -10.31,   1.0,      100,    1,   82.5,     0.0,      0, 0, 0, 0, 0, 0, 0, 0, 0, 0, 0, 0,   0.95,   123.75,   16.5,     24.75,    24.75,    33.0      ],
		[339,    134.0,    0,        67.0,     -16.75,   1.0,      100,    1,   134.0,    0.0,      0, 0, 0, 0, 0, 0, 0, 0, 0, 0, 0, 0,   0.95,   201.0,    26.8,     40.2,     40.2,     53.6      ],
		[339,    0.0,      0,        79.5,     -19.88,   1.0,      100,    1,   159.0,    0.0,      0, 0, 0, 0, 0, 0, 0, 0, 0, 0, 0, 0,   0.95,   238.5,    31.8,     47.7,     47.7,     63.6      ],
		[339,    0.0,      0,        55.5,     -13.88,   1.0,      100,    1,   111.0,    0.0,      0, 0, 0, 0, 0, 0, 0, 0, 0, 0, 0, 0,   0.95,   166.5,    22.2,     33.3,     33.3,     44.4      ],
		[339,    0.0,      0,        21.35,    -5.34,    1.0,      100,    1,   42.7,     0.0,      0, 0, 0, 0, 0, 0, 0, 0, 0, 0, 0, 0,   0.95,   64.05,    8.54,     12.81,    12.81,    17.08     ],
		[339,    58.0,     0,        29.0,     -7.25,    1.0,      100,    1,   58.0,     0.0,      0, 0, 0, 0, 0, 0, 0, 0, 0, 0, 0, 0,   0.95,   87.0,     11.6,     17.4,     17.4,     23.2      ],
		[340,    0.0,      0,        9.75,     -2.44,    1.0,      100,    1,   19.5,     0.0,      0, 0, 0, 0, 0, 0, 0, 0, 0, 0, 0, 0,   0.95,   29.25,    3.9,      5.85,     5.85,     7.8       ],
		[342,    0.0,      0,        34.98,    -8.74,    1.0,      100,    1,   69.95,    0.0,      0, 0, 0, 0, 0, 0, 0, 0, 0, 0, 0, 0,   0.95,   104.93,   13.99,    20.98,    20.98,    27.98     ],
		[345,    0.0,      0,        105.5,    -26.38,   1.0,      100,    1,   211.0,    0.0,      0, 0, 0, 0, 0, 0, 0, 0, 0, 0, 0, 0,   0.95,   316.5,    42.2,     63.3,     63.3,     84.4      ],
		[345,    0.0,      0,        44.5,     -11.12,   1.0,      100,    1,   89.0,     0.0,      0, 0, 0, 0, 0, 0, 0, 0, 0, 0, 0, 0,   0.95,   133.5,    17.8,     26.7,     26.7,     35.6      ],
		[345,    0.0,      0,        163.5,    -40.88,   1.0,      100,    1,   327.0,    0.0,      0, 0, 0, 0, 0, 0, 0, 0, 0, 0, 0, 0,   0.95,   490.5,    65.4,     98.1,     98.1,     130.8     ],
		[346,    0.0,      0,        229.45,   -57.36,   1.0,      100,    1,   458.9,    0.0,      0, 0, 0, 0, 0, 0, 0, 0, 0, 0, 0, 0,   0.95,   688.35,   91.78,    137.67,   137.67,   183.56    ],
		[363,    0.0,      0,        40.9,     -10.22,   1.0,      100,    1,   81.8,     0.0,      0, 0, 0, 0, 0, 0, 0, 0, 0, 0, 0, 0,   0.95,   122.7,    16.36,    24.54,    24.54,    32.72     ],
		[363,    0.0,      0,        344.0,    -86.0,    1.0,      100,    1,   688.0,    0.0,      0, 0, 0, 0, 0, 0, 0, 0, 0, 0, 0, 0,   0.95,   1032.0,   137.6,    206.4,    206.4,    275.2     ],
		[363,    36.0,     0,        18.0,     -4.5,     1.0,      100,    1,   36.0,     0.0,      0, 0, 0, 0, 0, 0, 0, 0, 0, 0, 0, 0,   0.95,   54.0,     7.2,      10.8,     10.8,     14.4      ],
		[503,    0.0,      0,        26.0,     -6.5,     1.0,      100,    1,   52.0,     0.0,      0, 0, 0, 0, 0, 0, 0, 0, 0, 0, 0, 0,   0.95,   78.0,     10.4,     15.6,     15.6,     20.8      ],
		[503,    62.46,    0,        680.0,    -170.0,   1.0,      100,    1,   1360.0,   0.0,      0, 0, 0, 0, 0, 0, 0, 0, 0, 0, 0, 0,   0.95,   2040.0,   272.0,    408.0,    408.0,    544.0     ],
		[503,    58.4,     0,        29.2,     -7.3,     1.0,      100,    1,   58.4,     0.0,      0, 0, 0, 0, 0, 0, 0, 0, 0, 0, 0, 0,   0.95,   87.6,     11.68,    17.52,    17.52,    23.36     ],
		[39,     0.0,      0,        1149.65,  -287.41,  1.0,      100,    1,   2299.3,   0.0,      0, 0, 0, 0, 0, 0, 0, 0, 0, 0, 0, 0,   0.95,   3448.95,  459.86,   689.79,   689.79,   919.72    ],
		[40,     48.0,     0,        24.0,     -6.0,     1.0,      100,    1,   48.0,     0.0,      0, 0, 0, 0, 0, 0, 0, 0, 0, 0, 0, 0,   0.95,   72.0,     9.6,      14.4,     14.4,     19.2      ],
		[400,    0.0,      0,        44.0,     -11.0,    1.0,      100,    1,   88.0,     0.0,      0, 0, 0, 0, 0, 0, 0, 0, 0, 0, 0, 0,   0.95,   132.0,    17.6,     26.4,     26.4,     35.2      ],
		[400,    0.0,      0,        30.0,     -7.5,     1.0,      100,    1,   60.0,     0.0,      0, 0, 0, 0, 0, 0, 0, 0, 0, 0, 0, 0,   0.95,   90.0,     12.0,     18.0,     18.0,     24.0      ],
		[400,    0.0,      0,        79.0,     -19.75,   1.0,      100,    1,   158.0,    0.0,      0, 0, 0, 0, 0, 0, 0, 0, 0, 0, 0, 0,   0.95,   237.0,    31.6,     47.4,     47.4,     63.2      ],
		[422,    74.0,     0,        37.0,     -9.25,    1.0,      100,    1,   74.0,     0.0,      0, 0, 0, 0, 0, 0, 0, 0, 0, 0, 0, 0,   0.95,   111.0,    14.8,     22.2,     22.2,     29.6      ],
		[43,     0.0,      0,        98.0,     -24.5,    1.0,      100,    1,   196.0,    0.0,      0, 0, 0, 0, 0, 0, 0, 0, 0, 0, 0, 0,   0.95,   294.0,    39.2,     58.8,     58.8,     78.4      ],
		[43,     17.0,     0,        8.5,      -2.12,    1.0,      100,    1,   17.0,     0.0,      0, 0, 0, 0, 0, 0, 0, 0, 0, 0, 0, 0,   0.95,   25.5,     3.4,      5.1,      5.1,      6.8       ],
		[429,    0.0,      0,        82.0,     -20.5,    1.0,      100,    1,   164.0,    0.0,      0, 0, 0, 0, 0, 0, 0, 0, 0, 0, 0, 0,   0.95,   246.0,    32.8,     49.2,     49.2,     65.6      ],
		[44,     26.0,     0,        13.0,     -3.25,    1.0,      100,    1,   26.0,     0.0,      0, 0, 0, 0, 0, 0, 0, 0, 0, 0, 0, 0,   0.95,   39.0,     5.2,      7.8,      7.8,      10.4      ],
		[435,    0.0,      0,        91.0,     -22.75,   1.0,      100,    1,   182.0,    0.0,      0, 0, 0, 0, 0, 0, 0, 0, 0, 0, 0, 0,   0.95,   273.0,    36.4,     54.6,     54.6,     72.8      ],
		[435,    0.0,      0,        30.75,    -7.69,    1.0,      100,    1,   61.5,     0.0,      0, 0, 0, 0, 0, 0, 0, 0, 0, 0, 0, 0,   0.95,   92.25,    12.3,     18.45,    18.45,    24.6      ],
		[436,    0.0,      0,        13.25,    -3.31,    1.0,      100,    1,   26.5,     0.0,      0, 0, 0, 0, 0, 0, 0, 0, 0, 0, 0, 0,   0.95,   39.75,    5.3,      7.95,     7.95,     10.6      ],
		[440,    0.0,      0,        7.35,     -1.84,    1.0,      100,    1,   14.7,     0.0,      0, 0, 0, 0, 0, 0, 0, 0, 0, 0, 0, 0,   0.95,   22.05,    2.94,     4.41,     4.41,     5.88      ],
		[441,    0.0,      0,        37.5,     -9.38,    1.0,      100,    1,   75.0,     0.0,      0, 0, 0, 0, 0, 0, 0, 0, 0, 0, 0, 0,   0.95,   112.5,    15.0,     22.5,     22.5,     30.0      ],
		[45,     0.0,      0,        148.0,    -37.0,    1.0,      100,    1,   296.0,    0.0,      0, 0, 0, 0, 0, 0, 0, 0, 0, 0, 0, 0,   0.95,   444.0,    59.2,     88.8,     88.8,     118.4     ],
		[45,     0.0,      0,        11.55,    -2.89,    1.0,      100,    1,   23.1,     0.0,      0, 0, 0, 0, 0, 0, 0, 0, 0, 0, 0, 0,   0.95,   34.65,    4.62,     6.93,     6.93,     9.24      ],
		[47,     0.0,      0,        222.0,    -55.5,    1.0,      100,    1,   444.0,    0.0,      0, 0, 0, 0, 0, 0, 0, 0, 0, 0, 0, 0,   0.95,   666.0,    88.8,     133.2,    133.2,    177.6     ],
		[47,     31.7,     0,        15.85,    -3.96,    1.0,      100,    1,   31.7,     0.0,      0, 0, 0, 0, 0, 0, 0, 0, 0, 0, 0, 0,   0.95,   47.55,    6.34,     9.51,     9.51,     12.68     ],
		[49,     0.0,      0,        176.0,    -44.0,    1.0,      100,    1,   352.0,    0.0,      0, 0, 0, 0, 0, 0, 0, 0, 0, 0, 0, 0,   0.95,   528.0,    70.4,     105.6,    105.6,    140.8     ],
		[49,     0.0,      0,        33.0,     -8.25,    1.0,      100,    1,   66.0,     0.0,      0, 0, 0, 0, 0, 0, 0, 0, 0, 0, 0, 0,   0.95,   99.0,     13.2,     19.8,     19.8,     26.4      ],
		[49,     37.5,     0,        18.75,    -4.69,    1.0,      100,    1,   37.5,     0.0,      0, 0, 0, 0, 0, 0, 0, 0, 0, 0, 0, 0,   0.95,   56.25,    7.5,      11.25,    11.25,    15.0      ],
		[65,     164.5,    0,        82.25,    -20.56,   1.0,      100,    1,   164.5,    0.0,      0, 0, 0, 0, 0, 0, 0, 0, 0, 0, 0, 0,   0.95,   246.75,   32.9,     49.35,    49.35,    65.8      ],
		[71,     49.0,     0,        24.5,     -6.12,    1.0,      100,    1,   49.0,     0.0,      0, 0, 0, 0, 0, 0, 0, 0, 0, 0, 0, 0,   0.95,   73.5,     9.8,      14.7,     14.7,     19.6      ],
		[71,     0.0,      0,        80.55,    -20.14,   1.0,      100,    1,   161.1,    0.0,      0, 0, 0, 0, 0, 0, 0, 0, 0, 0, 0, 0,   0.95,   241.65,   32.22,    48.33,    48.33,    64.44     ],
		[71,     9.9,      0,        4.95,     -1.24,    1.0,      100,    1,   9.9,      0.0,      0, 0, 0, 0, 0, 0, 0, 0, 0, 0, 0, 0,   0.95,   14.85,    1.98,     2.97,     2.97,     3.96      ],
		[72,     900.0,    0,        450.0,    -112.5,   1.0,      100,    1,   900.0,    0.0,      0, 0, 0, 0, 0, 0, 0, 0, 0, 0, 0, 0,   0.95,   1350.0,   180.0,    270.0,    270.0,    360.0     ],
		[72,     0.0,      0,        75.5,     -18.88,   1.0,      100,    1,   151.0,    0.0,      0, 0, 0, 0, 0, 0, 0, 0, 0, 0, 0, 0,   0.95,   226.5,    30.2,     45.3,     45.3,     60.4      ],
		[72,     0.0,      0,        60.0,     -15.0,    1.0,      100,    1,   120.0,    0.0,      0, 0, 0, 0, 0, 0, 0, 0, 0, 0, 0, 0,   0.95,   180.0,    24.0,     36.0,     36.0,     48.0      ],
		[511,    0.0,      0,        61.0,     -15.25,   1.0,      100,    1,   122.0,    0.0,      0, 0, 0, 0, 0, 0, 0, 0, 0, 0, 0, 0,   0.95,   183.0,    24.4,     36.6,     36.6,     48.8      ],
		[511,    23.3,     0,        11.65,    -2.91,    1.0,      100,    1,   23.3,     0.0,      0, 0, 0, 0, 0, 0, 0, 0, 0, 0, 0, 0,   0.95,   34.95,    4.66,     6.99,     6.99,     9.32      ],
		[75,     29.84,    0,        24.5,     -6.12,    1.0,      100,    1,   49.0,     0.0,      0, 0, 0, 0, 0, 0, 0, 0, 0, 0, 0, 0,   0.95,   73.5,     9.8,      14.7,     14.7,     19.6      ],
		[79,     750.0,    0,        375.0,    -93.75,   1.0,      100,    1,   750.0,    0.0,      0, 0, 0, 0, 0, 0, 0, 0, 0, 0, 0, 0,   0.95,   1125.0,   150.0,    225.0,    225.0,    300.0     ],
		[79,     18.7,     0,        9.35,     -2.34,    1.0,      100,    1,   18.7,     0.0,      0, 0, 0, 0, 0, 0, 0, 0, 0, 0, 0, 0,   0.95,   28.05,    3.74,     5.61,     5.61,     7.48      ],
		[81,     2835.0,   0,        1417.5,   -354.38,  1.0,      100,    1,   2835.0,   0.0,      0, 0, 0, 0, 0, 0, 0, 0, 0, 0, 0, 0,   0.95,   4252.5,   567.0,    850.5,    850.5,    1134.0    ],
		[81,     0.0,      0,        62.25,    -15.56,   1.0,      100,    1,   124.5,    0.0,      0, 0, 0, 0, 0, 0, 0, 0, 0, 0, 0, 0,   0.95,   186.75,   24.9,     37.35,    37.35,    49.8      ],
		[218,    48.29,    0,        24.14,    -6.04,    1.0,      100,    1,   48.29,    0.0,      0, 0, 0, 0, 0, 0, 0, 0, 0, 0, 0, 1,   0.95,   72.43,    9.66,     14.49,    14.49,    19.31     ],
		[498,    1447.2,   0,        723.6,    -180.9,   1.0,      100,    1,   1447.2,   0.0,      0, 0, 0, 0, 0, 0, 0, 0, 0, 0, 0, 1,   0.95,   2170.8,   289.44,   434.16,   434.16,   578.88    ],
		[8,      77.55,    0,        38.77,    -9.69,    1.0,      100,    1,   77.55,    0.0,      0, 0, 0, 0, 0, 0, 0, 0, 0, 0, 0, 1,   0.95,   116.32,   15.51,    23.26,    23.26,    31.02     ],
		[9,      66.11,    0,        33.06,    -8.26,    1.0,      100,    1,   66.11,    0.0,      0, 0, 0, 0, 0, 0, 0, 0, 0, 0, 0, 1,   0.95,   99.17,    13.22,    19.83,    19.83,    26.44     ],
		[11,     81.46,    0,        40.73,    -10.18,   1.0,      100,    1,   81.46,    0.0,      0, 0, 0, 0, 0, 0, 0, 0, 0, 0, 0, 1,   0.95,   122.2,    16.29,    24.44,    24.44,    32.59     ],
		[17,     29.33,    0,        14.66,    -3.67,    1.0,      100,    1,   29.33,    0.0,      0, 0, 0, 0, 0, 0, 0, 0, 0, 0, 0, 1,   0.95,   43.99,    5.87,     8.8,      8.8,      11.73     ],
		[21,     28.31,    0,        14.15,    -3.54,    1.0,      100,    1,   28.31,    0.0,      0, 0, 0, 0, 0, 0, 0, 0, 0, 0, 0, 1,   0.95,   42.46,    5.66,     8.49,     8.49,     11.32     ],
		[23,     0.0,      0,        25.48,    -6.37,    1.0,      100,    1,   50.97,    0.0,      0, 0, 0, 0, 0, 0, 0, 0, 0, 0, 0, 1,   0.95,   76.45,    10.19,    15.29,    15.29,    20.39     ],
		[25,     0.0,      0,        43.67,    -10.92,   1.0,      100,    1,   87.34,    0.0,      0, 0, 0, 0, 0, 0, 0, 0, 0, 0, 0, 1,   0.95,   131.02,   17.47,    26.2,     26.2,     34.94     ],
		[31,     18.35,    0,        9.18,     -2.29,    1.0,      100,    1,   18.35,    0.0,      0, 0, 0, 0, 0, 0, 0, 0, 0, 0, 0, 1,   0.95,   27.53,    3.67,     5.51,     5.51,     7.34      ],
		[33,     201.76,   0,        100.88,   -25.22,   1.0,      100,    1,   201.76,   0.0,      0, 0, 0, 0, 0, 0, 0, 0, 0, 0, 0, 1,   0.95,   302.64,   40.35,    60.53,    60.53,    80.7      ],
		[38,     1.49,     0,        0.75,     -0.19,    1.0,      100,    1,   1.49,     0.0,      0, 0, 0, 0, 0, 0, 0, 0, 0, 0, 0, 1,   0.95,   2.24,     0.3,      0.45,     0.45,     0.6       ],
		[39,     423.75,   0,        211.87,   -52.97,   1.0,      100,    1,   423.75,   0.0,      0, 0, 0, 0, 0, 0, 0, 0, 0, 0, 0, 1,   0.95,   635.62,   84.75,    127.12,   127.12,   169.5     ],
		[40,     354.37,   0,        177.19,   -44.3,    1.0,      100,    1,   354.37,   0.0,      0, 0, 0, 0, 0, 0, 0, 0, 0, 0, 0, 1,   0.95,   531.56,   70.87,    106.31,   106.31,   141.75    ],
		[41,     866.64,   0,        433.32,   -108.33,  1.0,      100,    1,   866.64,   0.0,      0, 0, 0, 0, 0, 0, 0, 0, 0, 0, 0, 1,   0.95,   1299.96,  173.33,   259.99,   259.99,   346.66    ],
		[43,     270.97,   0,        135.49,   -33.87,   1.0,      100,    1,   270.97,   0.0,      0, 0, 0, 0, 0, 0, 0, 0, 0, 0, 0, 1,   0.95,   406.46,   54.19,    81.29,    81.29,    108.39    ],
		[44,     4.34,     0,        2.17,     -0.54,    1.0,      100,    1,   4.34,     0.0,      0, 0, 0, 0, 0, 0, 0, 0, 0, 0, 0, 1,   0.95,   6.52,     0.87,     1.3,      1.3,      1.74      ],
		[45,     72.99,    0,        36.5,     -9.12,    1.0,      100,    1,   72.99,    0.0,      0, 0, 0, 0, 0, 0, 0, 0, 0, 0, 0, 1,   0.95,   109.49,   14.6,     21.9,     21.9,     29.2      ],
		[47,     1.42,     0,        0.71,     -0.18,    1.0,      100,    1,   1.42,     0.0,      0, 0, 0, 0, 0, 0, 0, 0, 0, 0, 0, 1,   0.95,   2.13,     0.28,     0.43,     0.43,     0.57      ],
		[48,     4.26,     0,        2.13,     -0.53,    1.0,      100,    1,   4.26,     0.0,      0, 0, 0, 0, 0, 0, 0, 0, 0, 0, 0, 1,   0.95,   6.4,      0.85,     1.28,     1.28,     1.71      ],
		[49,     146.58,   0,        73.29,    -18.32,   1.0,      100,    1,   146.58,   0.0,      0, 0, 0, 0, 0, 0, 0, 0, 0, 0, 0, 1,   0.95,   219.87,   29.32,    43.97,    43.97,    58.63     ],
		[65,     13.21,    0,        6.6,      -1.65,    1.0,      100,    1,   13.21,    0.0,      0, 0, 0, 0, 0, 0, 0, 0, 0, 0, 0, 1,   0.95,   19.81,    2.64,     3.96,     3.96,     5.28      ],
		[71,     142.97,   0,        71.48,    -17.87,   1.0,      100,    1,   142.97,   0.0,      0, 0, 0, 0, 0, 0, 0, 0, 0, 0, 0, 1,   0.95,   214.45,   28.59,    42.89,    42.89,    57.19     ],
		[72,     163.14,   0,        81.57,    -20.39,   1.0,      100,    1,   163.14,   0.0,      0, 0, 0, 0, 0, 0, 0, 0, 0, 0, 0, 1,   0.95,   244.7,    32.63,    48.94,    48.94,    65.25     ],
		[73,     270.3,    0,        135.15,   -33.79,   1.0,      100,    1,   270.3,    0.0,      0, 0, 0, 0, 0, 0, 0, 0, 0, 0, 0, 1,   0.95,   405.44,   54.06,    81.09,    81.09,    108.12    ],
		[75,     229.96,   0,        114.98,   -28.75,   1.0,      100,    1,   229.96,   0.0,      0, 0, 0, 0, 0, 0, 0, 0, 0, 0, 0, 1,   0.95,   344.94,   45.99,    68.99,    68.99,    91.98     ],
		[79,     70.75,    0,        35.37,    -8.84,    1.0,      100,    1,   70.75,    0.0,      0, 0, 0, 0, 0, 0, 0, 0, 0, 0, 0, 1,   0.95,   106.12,   14.15,    21.22,    21.22,    28.3      ],
		[80,     32.41,    0,        16.2,     -4.05,    1.0,      100,    1,   32.41,    0.0,      0, 0, 0, 0, 0, 0, 0, 0, 0, 0, 0, 1,   0.95,   48.61,    6.48,     9.72,     9.72,     12.96     ],
		[81,     186.73,   0,        93.37,    -23.34,   1.0,      100,    1,   186.73,   0.0,      0, 0, 0, 0, 0, 0, 0, 0, 0, 0, 0, 1,   0.95,   280.1,    37.35,    56.02,    56.02,    74.69     ],
		[98,     76.28,    0,        38.14,    -9.53,    1.0,      100,    1,   76.28,    0.0,      0, 0, 0, 0, 0, 0, 0, 0, 0, 0, 0, 1,   0.95,   114.42,   15.26,    22.88,    22.88,    30.51     ],
		[101,    324.28,   0,        162.14,   -40.53,   1.0,      100,    1,   324.28,   0.0,      0, 0, 0, 0, 0, 0, 0, 0, 0, 0, 0, 1,   0.95,   486.41,   64.86,    97.28,    97.28,    129.71    ],
		[102,    222.85,   0,        111.43,   -27.86,   1.0,      100,    1,   222.85,   0.0,      0, 0, 0, 0, 0, 0, 0, 0, 0, 0, 0, 1,   0.95,   334.28,   44.57,    66.86,    66.86,    89.14     ],
		[177,    213.47,   0,        106.74,   -26.68,   1.0,      100,    1,   213.47,   0.0,      0, 0, 0, 0, 0, 0, 0, 0, 0, 0, 0, 1,   0.95,   320.21,   42.69,    64.04,    64.04,    85.39     ],
		[179,    358.24,   0,        179.12,   -44.78,   1.0,      100,    1,   358.24,   0.0,      0, 0, 0, 0, 0, 0, 0, 0, 0, 0, 0, 1,   0.95,   537.36,   71.65,    107.47,   107.47,   143.3     ],
		[180,    207.71,   0,        103.86,   -25.96,   1.0,      100,    1,   207.71,   0.0,      0, 0, 0, 0, 0, 0, 0, 0, 0, 0, 0, 1,   0.95,   311.57,   41.54,    62.31,    62.31,    83.08     ],
		[181,    233.79,   0,        116.9,    -29.22,   1.0,      100,    1,   233.79,   0.0,      0, 0, 0, 0, 0, 0, 0, 0, 0, 0, 0, 1,   0.95,   350.69,   46.76,    70.14,    70.14,    93.52     ],
		[182,    39.68,    0,        19.84,    -4.96,    1.0,      100,    1,   39.68,    0.0,      0, 0, 0, 0, 0, 0, 0, 0, 0, 0, 0, 1,   0.95,   59.52,    7.94,     11.9,     11.9,     15.87     ],
		[183,    60.73,    0,        30.36,    -7.59,    1.0,      100,    1,   60.73,    0.0,      0, 0, 0, 0, 0, 0, 0, 0, 0, 0, 0, 1,   0.95,   91.09,    12.15,    18.22,    18.22,    24.29     ],
		[192,    221.32,   0,        110.66,   -27.66,   1.0,      100,    1,   221.32,   0.0,      0, 0, 0, 0, 0, 0, 0, 0, 0, 0, 0, 1,   0.95,   331.98,   44.26,    66.4,     66.4,     88.53     ],
		[217,    151.95,   0,        75.97,    -18.99,   1.0,      100,    1,   151.95,   0.0,      0, 0, 0, 0, 0, 0, 0, 0, 0, 0, 0, 1,   0.95,   227.92,   30.39,    45.58,    45.58,    60.78     ],
		[218,    84.66,    0,        42.33,    -10.58,   1.0,      100,    1,   84.66,    0.0,      0, 0, 0, 0, 0, 0, 0, 0, 0, 0, 0, 1,   0.95,   126.98,   16.93,    25.4,     25.4,     33.86     ],
		[276,    247.93,   0,        123.97,   -30.99,   1.0,      100,    1,   247.93,   0.0,      0, 0, 0, 0, 0, 0, 0, 0, 0, 0, 0, 1,   0.95,   371.9,    49.59,    74.38,    74.38,    99.17     ],
		[278,    217.01,   0,        108.5,    -27.13,   1.0,      100,    1,   217.01,   0.0,      0, 0, 0, 0, 0, 0, 0, 0, 0, 0, 0, 1,   0.95,   325.51,   43.4,     65.1,     65.1,     86.8      ],
		[288,    68.06,    0,        34.03,    -8.51,    1.0,      100,    1,   68.06,    0.0,      0, 0, 0, 0, 0, 0, 0, 0, 0, 0, 0, 1,   0.95,   102.09,   13.61,    20.42,    20.42,    27.22     ],
		[289,    20.83,    0,        10.42,    -2.6,     1.0,      100,    1,   20.83,    0.0,      0, 0, 0, 0, 0, 0, 0, 0, 0, 0, 0, 1,   0.95,   31.25,    4.17,     6.25,     6.25,     8.33      ],
		[291,    15.55,    0,        7.78,     -1.94,    1.0,      100,    1,   15.55,    0.0,      0, 0, 0, 0, 0, 0, 0, 0, 0, 0, 0, 1,   0.95,   23.33,    3.11,     4.67,     4.67,     6.22      ],
		[292,    11.78,    0,        5.89,     -1.47,    1.0,      100,    1,   11.78,    0.0,      0, 0, 0, 0, 0, 0, 0, 0, 0, 0, 0, 1,   0.95,   17.66,    2.36,     3.53,     3.53,     4.71      ],
		[311,    18.27,    0,        9.14,     -2.28,    1.0,      100,    1,   18.27,    0.0,      0, 0, 0, 0, 0, 0, 0, 0, 0, 0, 0, 1,   0.95,   27.41,    3.65,     5.48,     5.48,     7.31      ],
		[321,    34.66,    0,        17.33,    -4.33,    1.0,      100,    1,   34.66,    0.0,      0, 0, 0, 0, 0, 0, 0, 0, 0, 0, 0, 1,   0.95,   51.99,    6.93,     10.4,     10.4,     13.87     ],
		[322,    83.97,    0,        41.99,    -10.5,    1.0,      100,    1,   83.97,    0.0,      0, 0, 0, 0, 0, 0, 0, 0, 0, 0, 0, 1,   0.95,   125.96,   16.79,    25.19,    25.19,    33.59     ],
		[323,    15.85,    0,        7.93,     -1.98,    1.0,      100,    1,   15.85,    0.0,      0, 0, 0, 0, 0, 0, 0, 0, 0, 0, 0, 1,   0.95,   23.78,    3.17,     4.76,     4.76,     6.34      ],
		[324,    53.94,    0,        26.97,    -6.74,    1.0,      100,    1,   53.94,    0.0,      0, 0, 0, 0, 0, 0, 0, 0, 0, 0, 0, 1,   0.95,   80.91,    10.79,    16.18,    16.18,    21.58     ],
		[325,    138.55,   0,        69.28,    -17.32,   1.0,      100,    1,   138.55,   0.0,      0, 0, 0, 0, 0, 0, 0, 0, 0, 0, 0, 1,   0.95,   207.83,   27.71,    41.57,    41.57,    55.42     ],
		[338,    25.7,     0,        12.85,    -3.21,    1.0,      100,    1,   25.7,     0.0,      0, 0, 0, 0, 0, 0, 0, 0, 0, 0, 0, 1,   0.95,   38.55,    5.14,     7.71,     7.71,     10.28     ],
		[339,    64.2,     0,        32.1,     -8.02,    1.0,      100,    1,   64.2,     0.0,      0, 0, 0, 0, 0, 0, 0, 0, 0, 0, 0, 1,   0.95,   96.3,     12.84,    19.26,    19.26,    25.68     ],
		[340,    85.97,    0,        42.99,    -10.75,   1.0,      100,    1,   85.97,    0.0,      0, 0, 0, 0, 0, 0, 0, 0, 0, 0, 0, 1,   0.95,   128.96,   17.19,    25.79,    25.79,    34.39     ],
		[341,    1.26,     0,        0.63,     -0.16,    1.0,      100,    1,   1.26,     0.0,      0, 0, 0, 0, 0, 0, 0, 0, 0, 0, 0, 1,   0.95,   1.88,     0.25,     0.38,     0.38,     0.5       ],
		[342,    75.7,     0,        37.85,    -9.46,    1.0,      100,    1,   75.7,     0.0,      0, 0, 0, 0, 0, 0, 0, 0, 0, 0, 0, 1,   0.95,   113.56,   15.14,    22.71,    22.71,    30.28     ],
		[343,    23.54,    0,        11.77,    -2.94,    1.0,      100,    1,   23.54,    0.0,      0, 0, 0, 0, 0, 0, 0, 0, 0, 0, 0, 1,   0.95,   35.31,    4.71,     7.06,     7.06,     9.42      ],
		[344,    1.2,      0,        0.6,      -0.15,    1.0,      100,    1,   1.2,      0.0,      0, 0, 0, 0, 0, 0, 0, 0, 0, 0, 0, 1,   0.95,   1.8,      0.24,     0.36,     0.36,     0.48      ],
		[345,    2.62,     0,        1.31,     -0.33,    1.0,      100,    1,   2.62,     0.0,      0, 0, 0, 0, 0, 0, 0, 0, 0, 0, 0, 1,   0.95,   3.93,     0.52,     0.79,     0.79,     1.05      ],
		[346,    2.69,     0,        1.34,     -0.34,    1.0,      100,    1,   2.69,     0.0,      0, 0, 0, 0, 0, 0, 0, 0, 0, 0, 0, 1,   0.95,   4.03,     0.54,     0.81,     0.81,     1.07      ],
		[363,    1.64,     0,        0.82,     -0.21,    1.0,      100,    1,   1.64,     0.0,      0, 0, 0, 0, 0, 0, 0, 0, 0, 0, 0, 1,   0.95,   2.46,     0.33,     0.49,     0.49,     0.66      ],
		[400,    0.0,      0,        82.22,    -20.55,   1.0,      100,    1,   164.43,   0.0,      0, 0, 0, 0, 0, 0, 0, 0, 0, 0, 0, 1,   0.95,   246.65,   32.89,    49.33,    49.33,    65.77     ],
		[422,    37.64,    0,        18.82,    -4.71,    1.0,      100,    1,   37.64,    0.0,      0, 0, 0, 0, 0, 0, 0, 0, 0, 0, 0, 1,   0.95,   56.46,    7.53,     11.29,    11.29,    15.06     ],
		[429,    0.58,     0,        0.29,     -0.07,    1.0,      100,    1,   0.58,     0.0,      0, 0, 0, 0, 0, 0, 0, 0, 0, 0, 0, 1,   0.95,   0.87,     0.12,     0.17,     0.17,     0.23      ],
		[435,    87.38,    0,        43.69,    -10.92,   1.0,      100,    1,   87.38,    0.0,      0, 0, 0, 0, 0, 0, 0, 0, 0, 0, 0, 1,   0.95,   131.07,   17.48,    26.21,    26.21,    34.95     ],
		[436,    21.69,    0,        10.85,    -2.71,    1.0,      100,    1,   21.69,    0.0,      0, 0, 0, 0, 0, 0, 0, 0, 0, 0, 0, 1,   0.95,   32.54,    4.34,     6.51,     6.51,     8.68      ],
		[440,    208.51,   0,        104.25,   -26.06,   1.0,      100,    1,   208.51,   0.0,      0, 0, 0, 0, 0, 0, 0, 0, 0, 0, 0, 1,   0.95,   312.76,   41.7,     62.55,    62.55,    83.4      ],
		[441,    205.81,   0,        102.9,    -25.73,   1.0,      100,    1,   205.81,   0.0,      0, 0, 0, 0, 0, 0, 0, 0, 0, 0, 0, 1,   0.95,   308.71,   41.16,    61.74,    61.74,    82.32     ],
		[492,    278.81,   0,        139.4,    -34.85,   1.0,      100,    1,   278.81,   0.0,      0, 0, 0, 0, 0, 0, 0, 0, 0, 0, 0, 1,   0.95,   418.21,   55.76,    83.64,    83.64,    111.52    ],
		[493,    173.74,   0,        86.87,    -21.72,   1.0,      100,    1,   173.74,   0.0,      0, 0, 0, 0, 0, 0, 0, 0, 0, 0, 0, 1,   0.95,   260.61,   34.75,    52.12,    52.12,    69.5      ],
		[496,    217.22,   0,        108.61,   -27.15,   1.0,      100,    1,   217.22,   0.0,      0, 0, 0, 0, 0, 0, 0, 0, 0, 0, 0, 1,   0.95,   325.83,   43.44,    65.17,    65.17,    86.89     ],
		[497,    9.52,     0,        4.76,     -1.19,    1.0,      100,    1,   9.52,     0.0,      0, 0, 0, 0, 0, 0, 0, 0, 0, 0, 0, 1,   0.95,   14.28,    1.9,      2.86,     2.86,     3.81      ],
		[498,    1091.44,  0,        601.33,   -150.33,  1.0,      100,    1,   1202.67,  0.0,      0, 0, 0, 0, 0, 0, 0, 0, 0, 0, 0, 1,   0.95,   1804.0,   240.53,   360.8,    360.8,    481.07    ],
		[502,    150.08,   0,        75.04,    -18.76,   1.0,      100,    1,   150.08,   0.0,      0, 0, 0, 0, 0, 0, 0, 0, 0, 0, 0, 1,   0.95,   225.11,   30.02,    45.02,    45.02,    60.03     ],
		[503,    280.89,   0,        140.44,   -35.11,   1.0,      100,    1,   280.89,   0.0,      0, 0, 0, 0, 0, 0, 0, 0, 0, 0, 0, 1,   0.95,   421.33,   56.18,    84.27,    84.27,    112.35    ],
		[504,    87.07,    0,        43.53,    -10.88,   1.0,      100,    1,   87.07,    0.0,      0, 0, 0, 0, 0, 0, 0, 0, 0, 0, 0, 1,   0.95,   130.6,    17.41,    26.12,    26.12,    34.83     ],
		[505,    0.41,     0,        0.21,     -0.05,    1.0,      100,    1,   0.41,     0.0,      0, 0, 0, 0, 0, 0, 0, 0, 0, 0, 0, 1,   0.95,   0.62,     0.08,     0.12,     0.12,     0.16      ],
		[511,    367.54,   0,        183.77,   -45.94,   1.0,      100,    1,   367.54,   0.0,      0, 0, 0, 0, 0, 0, 0, 0, 0, 0, 0, 1,   0.95,   551.31,   73.51,    110.26,   110.26,   147.02    ],
		[512,    50.57,    0,        25.28,    -6.32,    1.0,      100,    1,   50.57,    0.0,      0, 0, 0, 0, 0, 0, 0, 0, 0, 0, 0, 1,   0.95,   75.85,    10.11,    15.17,    15.17,    20.23     ],
		[557,    62.95,    0,        31.47,    -7.87,    1.0,      100,    1,   62.95,    0.0,      0, 0, 0, 0, 0, 0, 0, 0, 0, 0, 0, 1,   0.95,   94.42,    12.59,    18.88,    18.88,    25.18     ],
		[558,    118.87,   0,        59.43,    -14.86,   1.0,      100,    1,   118.87,   0.0,      0, 0, 0, 0, 0, 0, 0, 0, 0, 0, 0, 1,   0.95,   178.3,    23.77,    35.66,    35.66,    47.55     ],
		[559,    48.14,    0,        24.07,    -6.02,    1.0,      100,    1,   48.14,    0.0,      0, 0, 0, 0, 0, 0, 0, 0, 0, 0, 0, 1,   0.95,   72.22,    9.63,     14.44,    14.44,    19.26     ],
		[560,    234.75,   0,        117.38,   -29.34,   1.0,      100,    1,   234.75,   0.0,      0, 0, 0, 0, 0, 0, 0, 0, 0, 0, 0, 1,   0.95,   352.13,   46.95,    70.43,    70.43,    93.9      ],
		[569,    10.15,    0,        5.08,     -1.27,    1.0,      100,    1,   10.15,    0.0,      0, 0, 0, 0, 0, 0, 0, 0, 0, 0, 0, 1,   0.95,   15.23,    2.03,     3.05,     3.05,     4.06      ],
		[570,    73.4,     0,        36.7,     -9.18,    1.0,      100,    1,   73.4,     0.0,      0, 0, 0, 0, 0, 0, 0, 0, 0, 0, 0, 1,   0.95,   110.11,   14.68,    22.02,    22.02,    29.36     ],
		[8,      0.0,      0,        0.0,      -0.0,     1.0,      100,    1,   0.0,      0.0,      0, 0, 0, 0, 0, 0, 0, 0, 0, 0, 0, 2,   0.95,   0.0,      0.0,      0.0,      0.0,      0.0       ],
		[9,      0.0,      0,        0.0,      -0.0,     1.0,      100,    1,   0.0,      0.0,      0, 0, 0, 0, 0, 0, 0, 0, 0, 0, 0, 2,   0.95,   0.0,      0.0,      0.0,      0.0,      0.0       ],
		[11,     0.0,      0,        0.0,      -0.0,     1.0,      100,    1,   0.0,      0.0,      0, 0, 0, 0, 0, 0, 0, 0, 0, 0, 0, 2,   0.95,   0.0,      0.0,      0.0,      0.0,      0.0       ],
		[17,     0.0,      0,        0.0,      -0.0,     1.0,      100,    1,   0.0,      0.0,      0, 0, 0, 0, 0, 0, 0, 0, 0, 0, 0, 2,   0.95,   0.0,      0.0,      0.0,      0.0,      0.0       ],
		[21,     0.0,      0,        0.0,      -0.0,     1.0,      100,    1,   0.0,      0.0,      0, 0, 0, 0, 0, 0, 0, 0, 0, 0, 0, 2,   0.95,   0.0,      0.0,      0.0,      0.0,      0.0       ],
		[23,     0.0,      0,        0.0,      -0.0,     1.0,      100,    1,   0.0,      0.0,      0, 0, 0, 0, 0, 0, 0, 0, 0, 0, 0, 2,   0.95,   0.0,      0.0,      0.0,      0.0,      0.0       ],
		[25,     0.0,      0,        0.0,      -0.0,     1.0,      100,    1,   0.0,      0.0,      0, 0, 0, 0, 0, 0, 0, 0, 0, 0, 0, 2,   0.95,   0.0,      0.0,      0.0,      0.0,      0.0       ],
		[31,     0.0,      0,        0.0,      -0.0,     1.0,      100,    1,   0.0,      0.0,      0, 0, 0, 0, 0, 0, 0, 0, 0, 0, 0, 2,   0.95,   0.0,      0.0,      0.0,      0.0,      0.0       ],
		[33,     0.0,      0,        0.0,      -0.0,     1.0,      100,    1,   0.0,      0.0,      0, 0, 0, 0, 0, 0, 0, 0, 0, 0, 0, 2,   0.95,   0.0,      0.0,      0.0,      0.0,      0.0       ],
		[38,     0.0,      0,        0.0,      -0.0,     1.0,      100,    1,   0.0,      0.0,      0, 0, 0, 0, 0, 0, 0, 0, 0, 0, 0, 2,   0.95,   0.0,      0.0,      0.0,      0.0,      0.0       ],
		[39,     0.0,      0,        0.0,      -0.0,     1.0,      100,    1,   0.0,      0.0,      0, 0, 0, 0, 0, 0, 0, 0, 0, 0, 0, 2,   0.95,   0.0,      0.0,      0.0,      0.0,      0.0       ],
		[40,     0.0,      0,        0.0,      -0.0,     1.0,      100,    1,   0.0,      0.0,      0, 0, 0, 0, 0, 0, 0, 0, 0, 0, 0, 2,   0.95,   0.0,      0.0,      0.0,      0.0,      0.0       ],
		[41,     0.0,      0,        0.0,      -0.0,     1.0,      100,    1,   0.0,      0.0,      0, 0, 0, 0, 0, 0, 0, 0, 0, 0, 0, 2,   0.95,   0.0,      0.0,      0.0,      0.0,      0.0       ],
		[43,     0.0,      0,        0.0,      -0.0,     1.0,      100,    1,   0.0,      0.0,      0, 0, 0, 0, 0, 0, 0, 0, 0, 0, 0, 2,   0.95,   0.0,      0.0,      0.0,      0.0,      0.0       ],
		[44,     0.0,      0,        0.0,      -0.0,     1.0,      100,    1,   0.0,      0.0,      0, 0, 0, 0, 0, 0, 0, 0, 0, 0, 0, 2,   0.95,   0.0,      0.0,      0.0,      0.0,      0.0       ],
		[45,     0.0,      0,        0.0,      -0.0,     1.0,      100,    1,   0.0,      0.0,      0, 0, 0, 0, 0, 0, 0, 0, 0, 0, 0, 2,   0.95,   0.0,      0.0,      0.0,      0.0,      0.0       ],
		[47,     0.0,      0,        0.0,      -0.0,     1.0,      100,    1,   0.0,      0.0,      0, 0, 0, 0, 0, 0, 0, 0, 0, 0, 0, 2,   0.95,   0.0,      0.0,      0.0,      0.0,      0.0       ],
		[48,     0.0,      0,        0.0,      -0.0,     1.0,      100,    1,   0.0,      0.0,      0, 0, 0, 0, 0, 0, 0, 0, 0, 0, 0, 2,   0.95,   0.0,      0.0,      0.0,      0.0,      0.0       ],
		[49,     0.0,      0,        0.0,      -0.0,     1.0,      100,    1,   0.0,      0.0,      0, 0, 0, 0, 0, 0, 0, 0, 0, 0, 0, 2,   0.95,   0.0,      0.0,      0.0,      0.0,      0.0       ],
		[65,     0.0,      0,        0.0,      -0.0,     1.0,      100,    1,   0.0,      0.0,      0, 0, 0, 0, 0, 0, 0, 0, 0, 0, 0, 2,   0.95,   0.0,      0.0,      0.0,      0.0,      0.0       ],
...
	])
	ppc["branch"] = array([
		[8,      9,      0.00024379,    0.00243793,    0.35006327,    2395,   0, 0, 0,      0, 1, -30,    30,     0.1     ],
		[492,    11,     0.0045562,     0.01822479,    0.04820045,    346,    0, 0, 0,      0, 1, -30,    30,     0.1     ],
		[11,     493,    0.00757174,    0.03028694,    0.0801021,     346,    0, 0, 0,      0, 1, -30,    30,     0.1     ],
		[492,    493,    0.01130413,    0.04521653,    0.11958747,    346,    0, 0, 0,      0, 1, -30,    30,     0.1     ],
		[17,     18,     0.00462352,    0.04623523,    0.9335989,     898,    0, 0, 0,      0, 1, -30,    30,     0.1     ],
		[17,     12,     0.0005602,     0.00560203,    0.1131183,     898,    0, 0, 0,      0, 1, -30,    30,     0.1     ],
		[20,     21,     0.00108334,    0.01083345,    0.09722357,    598,    0, 0, 0,      0, 1, -30,    30,     0.1     ],
		[20,     22,     0.00099339,    0.00993386,    0.3566014,     1197,   0, 0, 0,      0, 1, -30,    30,     0.1     ],
		[497,    23,     0.0005476,     0.00219041,    0.00579315,    346,    0, 0, 0,      0, 1, -30,    30,     0.1     ],
		[25,     22,     0.00035578,    0.00355783,    0.03192931,    598,    0, 0, 0,      0, 1, -30,    30,     0.1     ],
		[8,      21,     0.00098947,    0.00989474,    0.0887992,     598,    0, 0, 0,      0, 1, -30,    30,     0.1     ],
		[31,     32,     0.00299776,    0.02997761,    0.60531903,    898,    0, 0, 0,      0, 1, -30,    30,     0.1     ],
		[32,     33,     0.00167622,    0.01676223,    0.33846928,    898,    0, 0, 0,      0, 1, -30,    30,     0.1     ],
		[37,     10,     0.00240464,    0.0240464,     0.48555384,    898,    0, 0, 0,      0, 1, -30,    30,     0.1     ],
		[10,     38,     0.00068488,    0.0068488,     0.13829351,    898,    0, 0, 0,      0, 1, -30,    30,     0.1     ],
		[37,     38,     0.00143783,    0.01437835,    1.16133176,    1796,   0, 0, 0,      0, 1, -30,    30,     0.1     ],
		[39,     40,     0.00452163,    0.0452163,     0.91302431,    898,    0, 0, 0,      0, 1, -30,    30,     0.1     ],
		[39,     41,     0.0017467,     0.01746699,    0.35269996,    898,    0, 0, 0,      0, 1, -30,    30,     0.1     ],
		[42,     41,     0.00311454,    0.03114543,    0.6289001,     898,    0, 0, 0,      0, 1, -30,    30,     0.1     ],
		[18,     42,     0.00343975,    0.03439751,    0.69456727,    898,    0, 0, 0,      0, 1, -30,    30,     0.1     ],
		[492,    43,     0.00910612,    0.03642446,    0.09633445,    346,    0, 0, 0,      0, 1, -30,    30,     0.1     ],
		[492,    43,     0.00909587,    0.03638347,    0.09622603,    346,    0, 0, 0,      0, 1, -30,    30,     0.1     ],
		[44,     45,     0.00640579,    0.02562314,    0.0677674,     346,    0, 0, 0,      0, 1, -30,    30,     0.1     ],
		[44,     505,    0.00151537,    0.00606149,    0.01603126,    346,    0, 0, 0,      0, 1, -30,    30,     0.1     ],
		[46,     12,     0.00029449,    0.00294494,    0.1057163,     1197,   0, 0, 0,      0, 1, -30,    30,     0.1     ],
		[46,     12,     0.00029482,    0.00294823,    0.10583438,    1197,   0, 0, 0,      0, 1, -30,    30,     0.1     ],
		[47,     48,     0.00053442,    0.00534418,    0.01199019,    299,    0, 0, 0,      0, 1, -30,    30,     0.1     ],
		[31,     33,     0.0013476,     0.01347599,    0.27211226,    898,    0, 0, 0,      0, 1, -30,    30,     0.1     ],
		[71,     72,     0.00088786,    0.00887864,    0.31872128,    1197,   0, 0, 0,      0, 1, -30,    30,     0.1     ],
		[73,     74,     0.00125295,    0.01252955,    0.25300129,    898,    0, 0, 0,      0, 1, -30,    30,     0.1     ],
		[37,     75,     0.00274591,    0.02745914,    0.5544652,     898,    0, 0, 0,      0, 1, -30,    30,     0.1     ],
		[72,     75,     0.00066887,    0.00668871,    0.24010838,    1197,   0, 0, 0,      0, 1, -30,    30,     0.1     ],
		[37,     72,     0.00362221,    0.03622207,    0.73140949,    898,    0, 0, 0,      0, 1, -30,    30,     0.1     ],
		[73,     72,     0.00254751,    0.02547507,    0.51440208,    898,    0, 0, 0,      0, 1, -30,    30,     0.1     ],
		[18,     40,     0.00130277,    0.0130277,     0.26306019,    898,    0, 0, 0,      0, 1, -30,    30,     0.1     ],
		[492,    45,     0.00771758,    0.0308703,     0.18370115,    520,    0, 0, 0,      0, 1, -30,    30,     0.1     ],
		[10,     74,     0.00301674,    0.03016736,    0.60915055,    898,    0, 0, 0,      0, 1, -30,    30,     0.1     ],
		[45,     511,    0.02050843,    0.08203372,    0.05424015,    173,    0, 0, 0,      0, 1, -30,    30,     0.1     ],
		[78,     32,     0.00134588,    0.0134588,     0.48313778,    1197,   0, 0, 0,      0, 1, -30,    30,     0.1     ],
		[79,     80,     0.00076233,    0.00762327,    0.06841417,    598,    0, 0, 0,      0, 1, -30,    30,     0.1     ],
		[79,     80,     0.00076174,    0.00761738,    0.06836134,    598,    0, 0, 0,      0, 1, -30,    30,     0.1     ],
		[81,     79,     0.00215305,    0.02153047,    0.19322279,    598,    0, 0, 0,      0, 1, -30,    30,     0.1     ],
		[81,     79,     0.00215357,    0.02153566,    0.1932694,     598,    0, 0, 0,      0, 1, -30,    30,     0.1     ],
		[42,     98,     0.00061861,    0.00618611,    0.22206638,    1197,   0, 0, 0,      0, 1, -30,    30,     0.1     ],
		[42,     98,     0.00061835,    0.00618352,    0.22197315,    1197,   0, 0, 0,      0, 1, -30,    30,     0.1     ],
		[42,     101,    0.00081653,    0.00816534,    0.29311568,    1197,   0, 0, 0,      0, 1, -30,    30,     0.1     ],
		[102,    42,     0.0012403,     0.01240305,    0.44523901,    1197,   0, 0, 0,      0, 1, -30,    30,     0.1     ],
		[37,     39,     0.00065102,    0.00651021,    0.23370076,    1197,   0, 0, 0,      0, 1, -30,    30,     0.1     ],
		[177,    496,    0.00932496,    0.03729983,    0.09864961,    346,    0, 0, 0,      0, 1, -30,    30,     0.1     ],
		[177,    496,    0.00931603,    0.03726413,    0.09855518,    346,    0, 0, 0,      0, 1, -30,    30,     0.1     ],
		[179,    493,    0.01426992,    0.05707967,    0.15096279,    346,    0, 0, 0,      0, 1, -30,    30,     0.1     ],
		[180,    181,    0.01025686,    0.04102744,    0.10850827,    346,    0, 0, 0,      0, 1, -30,    30,     0.1     ],
		[182,    180,    0.00433818,    0.01735273,    0.04589403,    346,    0, 0, 0,      0, 1, -30,    30,     0.1     ],
		[179,    181,    0.00489306,    0.01957223,    0.05176412,    346,    0, 0, 0,      0, 1, -30,    30,     0.1     ],
		[180,    493,    0.0166914,     0.06676562,    0.17657993,    346,    0, 0, 0,      0, 1, -30,    30,     0.1     ],
		[183,    30,     0.00049645,    0.00496451,    0.17821369,    1197,   0, 0, 0,      0, 1, -30,    30,     0.1     ],
		[183,    21,     0.00025687,    0.00256873,    0.36884485,    2395,   0, 0, 0,      0, 1, -30,    30,     0.1     ],
		[183,    21,     0.00051295,    0.0051295,     0.18413654,    1197,   0, 0, 0,      0, 1, -30,    30,     0.1     ],
		[183,    30,     0.00049609,    0.00496087,    0.17808317,    1197,   0, 0, 0,      0, 1, -30,    30,     0.1     ],
		[504,    192,    0.00015355,    0.00061421,    0.00162446,    346,    0, 0, 0,      0, 1, -30,    30,     0.1     ],
		[504,    192,    0.00015421,    0.00061686,    0.00163145,    346,    0, 0, 0,      0, 1, -30,    30,     0.1     ],
		[217,    98,     0.00012787,    0.00127874,    0.04590362,    1197,   0, 0, 0,      0, 1, -30,    30,     0.1     ],
		[504,    218,    0.00687025,    0.02748099,    0.07268099,    346,    0, 0, 0,      0, 1, -30,    30,     0.1     ],
		[177,    504,    0.01763702,    0.0705481,     0.18658373,    346,    0, 0, 0,      0, 1, -30,    30,     0.1     ],
		[37,     39,     0.00086777,    0.00867775,    0.1752243,     898,    0, 0, 0,      0, 1, -30,    30,     0.1     ],
		[20,     22,     0.00099413,    0.00994131,    0.35686864,    1197,   0, 0, 0,      0, 1, -30,    30,     0.1     ],
		[20,     21,     0.00108314,    0.01083137,    0.09720492,    598,    0, 0, 0,      0, 1, -30,    30,     0.1     ],
		[503,    276,    0.00335322,    0.01341289,    0.03547406,    346,    0, 0, 0,      0, 1, -30,    30,     0.1     ],
		[503,    276,    0.00335372,    0.01341488,    0.03547931,    346,    0, 0, 0,      0, 1, -30,    30,     0.1     ],
		[503,    504,    0.03215471,    0.12861884,    0.34016769,    346,    0, 0, 0,      0, 1, -30,    30,     0.1     ],
		[503,    504,    0.03216364,    0.12865455,    0.34026211,    346,    0, 0, 0,      0, 1, -30,    30,     0.1     ],
...